* 
* No part of this file can be released without the consent of SMIC.
*
*********************************************************************************************
*          SMIC 0.18um Radio Frequency 1P6M 1.8V/3.3V SPICE model (for HSPICE only)            *
*********************************************************************************************
*
* Release version    : 1.9
*
* Release date       : 3/30/2008
*
* Simulation tool    : Synopsys Star-HSPICE version 2006.09
*
*   Resistor         :
*        *--------------------------------------------------------* 
*        |             Resistor Type                | 1.8V/3.3V   |
*        |==========================================|=============|
*        |                  Metal 6                 |   rm6_rf    |
*        *--------------------------------------------------------* 
*
*    Valid temperature range is from -40C to 125C
*
******************************************************************
*                         Resistor Model                         *
****************************************************************** 

******************************************************************
*                      Metal 6 resistance                        * 
******************************************************************
.model rm6_rf r
*metal resistor
+TC1R = 3.78E-03      TC2R = -3.83E-07               DW = '-5.6494E-09+DDW_RM6_RF'
+TREF = 25            RSH  = '0.0145+DRSH_RM6_RF'
*
